go atlas
mesh width=1e7
#x-mesh
x.mesh loc=0 spac=1
x.mesh loc=10 spac=1

y.mesh loc=0.0 spac=0.01
y.mesh loc=0.25 spac=0.001
y.mesh loc=0.75 spac=0.001
y.mesh loc=1.0 spac=0.01

region num=1 material=InGaP x.min=0 x.max=10 y.min=0.5 y.max=1
region num=2 material=InGaP x.min=0 x.max=10 y.min=0 y.max=0.5

elec name=anode top
elec name=cathode bottom

doping uniform p.type conc=2e20 y.max=0.5
doping uniform n.type conc=2e19 y.min=0.5

qtx.mesh loc=0 spac=1
qtx.mesh loc=10 spac=1
qty.mesh loc=0.35 spac=0.01
qty.mesh loc=0.5 spac=0.0005
qty.mesh loc=0.65 spac=0.01

models temperature=300 srh fermi ni.fermi print \
qtunn.dir=0 bbt.nonlocal bbt.forward bbt.nlderivs
output band.temp traps u.srh taurn taurp band.param con.band val.band \
qfn qfp
log outfile=tjInGaP.str
solve init
save outfile=tjInGaP.str
tonyplot tjInGaP.str
method climit=1.0 dvmax=0.05
solve init
solve prev
log outfile=tjInGaP.log

solve name=anode vanode =-1 vstep=0.1 vfinal=0.0
solve name=anode vanode =0.0 vstep=0.01 vfinal=0.2
solve name=anode vanode =0.2 vstep=0.1 vfinal=1.1
tonyplot tjInGaP.log

save outfile=tjInGaP.str
tonyplot tjInGaP.str

quit
